Version 4
SHEET 1 2040 788
WIRE 384 -32 16 -32
WIRE 832 -32 384 -32
WIRE 992 -32 832 -32
WIRE 1280 -32 1072 -32
WIRE 1696 -32 1280 -32
WIRE 1888 -32 1696 -32
WIRE 832 16 832 -32
WIRE 1696 16 1696 -32
WIRE 384 32 384 -32
WIRE 1280 64 1280 48
WIRE 1632 64 1280 64
WIRE 1280 80 1280 64
WIRE 16 112 16 -32
WIRE 832 128 832 96
WIRE 960 128 832 128
WIRE 1104 128 960 128
WIRE 832 144 832 128
WIRE 384 160 384 112
WIRE 608 160 384 160
WIRE 1696 160 1696 112
WIRE 608 192 608 160
WIRE 768 192 608 192
WIRE 1104 192 1104 128
WIRE 1280 192 1280 160
WIRE 384 208 384 160
WIRE 960 240 960 128
WIRE 112 256 -64 256
WIRE 208 256 112 256
WIRE 320 256 208 256
WIRE 608 256 608 192
WIRE 1696 256 1696 240
WIRE 1808 256 1696 256
WIRE 1904 256 1808 256
WIRE 1280 272 1280 256
WIRE 1440 272 1280 272
WIRE 1632 272 1440 272
WIRE -64 288 -64 256
WIRE 1696 288 1696 256
WIRE 1280 304 1280 272
WIRE 1440 304 1440 272
WIRE 832 336 832 240
WIRE 208 352 208 256
WIRE 1104 352 1104 256
WIRE 1216 352 1104 352
WIRE 1104 368 1104 352
WIRE 384 384 384 304
WIRE 608 384 608 320
WIRE 960 384 960 304
WIRE -64 400 -64 368
WIRE 1696 416 1696 368
WIRE 1280 448 1280 400
WIRE 1440 448 1440 368
WIRE 1632 464 1632 272
WIRE 384 512 384 464
WIRE 16 608 16 176
WIRE 208 608 208 432
WIRE 208 608 16 608
WIRE 384 608 384 576
WIRE 384 608 208 608
WIRE 464 608 384 608
WIRE 608 608 608 464
WIRE 608 608 464 608
WIRE 832 608 832 416
WIRE 832 608 608 608
WIRE 960 608 960 464
WIRE 960 608 832 608
WIRE 1104 608 1104 448
WIRE 1104 608 960 608
WIRE 1280 608 1280 528
WIRE 1280 608 1104 608
WIRE 1440 608 1440 528
WIRE 1440 608 1280 608
WIRE 1696 608 1696 512
WIRE 1696 608 1440 608
WIRE 464 640 464 608
WIRE 1696 656 1696 608
WIRE 112 720 112 256
WIRE 256 720 112 720
WIRE 464 720 464 704
WIRE 464 720 336 720
WIRE 560 720 464 720
WIRE 1808 720 1808 256
WIRE 1808 720 640 720
FLAG -64 400 0
FLAG 1696 656 0
FLAG 1904 256 4.OUTPUT
FLAG 1888 48 0
SYMBOL zener 32 176 R180
WINDOW 0 24 64 Left 2
WINDOW 3 24 0 Left 2
SYMATTR InstName CR1
SYMATTR Value KDZ15B
SYMATTR Description Diode
SYMATTR Type diode
SYMBOL voltage -64 272 R0
WINDOW 123 0 0 Left 0
WINDOW 39 0 0 Left 0
SYMATTR InstName 1.INPUT_HI
SYMATTR Value SINE(0 14 800)
SYMBOL res 192 336 R0
SYMATTR InstName R1
SYMATTR Value 15K
SYMBOL npn 320 208 R0
SYMATTR InstName Q1
SYMATTR Value 2N5769
SYMBOL res 368 16 R0
SYMATTR InstName R2
SYMATTR Value 24K
SYMBOL res 368 368 R0
SYMATTR InstName R3
SYMATTR Value 240
SYMBOL res 352 704 R90
WINDOW 0 0 56 VBottom 2
WINDOW 3 32 56 VTop 2
SYMATTR InstName R4
SYMATTR Value 56K
SYMBOL schottky 368 512 R0
SYMATTR InstName CR2
SYMATTR Value BAT46WJ
SYMATTR Description Diode
SYMATTR Type diode
SYMBOL cap 592 256 R0
SYMATTR InstName C1
SYMATTR Value 1000p
SYMBOL res 592 368 R0
SYMATTR InstName R5
SYMATTR Value 1000
SYMBOL npn 768 144 R0
SYMATTR InstName Q2
SYMATTR Value 2N5769
SYMBOL res 816 320 R0
SYMATTR InstName R6
SYMATTR Value 2.2K
SYMBOL res 816 0 R0
SYMATTR InstName R7
SYMATTR Value 20K
SYMBOL res 1088 -48 R90
WINDOW 0 0 56 VBottom 2
WINDOW 3 32 56 VTop 2
SYMATTR InstName R8
SYMATTR Value 5100
SYMBOL polcap 480 704 R180
WINDOW 0 24 57 Left 2
WINDOW 3 24 8 Left 2
SYMATTR InstName C2
SYMATTR Value 8.2µ
SYMATTR Description Capacitor
SYMATTR Type cap
SYMATTR SpiceLine V=20
SYMBOL cap 944 240 R0
SYMATTR InstName C3
SYMATTR Value 0.01µ
SYMBOL res 944 368 R0
SYMATTR InstName R9
SYMATTR Value 2K
SYMBOL zener 1120 256 R180
WINDOW 0 24 64 Left 2
WINDOW 3 24 0 Left 2
SYMATTR InstName CR3
SYMATTR Value 1N750
SYMATTR Description Diode
SYMATTR Type diode
SYMBOL res 1088 352 R0
SYMATTR InstName R10
SYMATTR Value 4700
SYMBOL npn 1216 304 R0
SYMATTR InstName Q3
SYMATTR Value 2N5769
SYMBOL res 656 704 R90
WINDOW 0 0 56 VBottom 2
WINDOW 3 32 56 VTop 2
SYMATTR InstName R11
SYMATTR Value 56K
SYMBOL res 1296 64 R180
WINDOW 0 36 76 Left 2
WINDOW 3 36 40 Left 2
SYMATTR InstName R12
SYMATTR Value 22K
SYMBOL res 1296 176 R180
WINDOW 0 36 76 Left 2
WINDOW 3 36 40 Left 2
SYMATTR InstName R13
SYMATTR Value 330
SYMBOL schottky 1264 192 R0
SYMATTR InstName CR4
SYMATTR Value BAT46WJ
SYMATTR Description Diode
SYMATTR Type diode
SYMBOL res 1264 432 R0
SYMATTR InstName R14
SYMATTR Value 100
SYMBOL cap 1424 304 R0
SYMATTR InstName C4
SYMATTR Value 470p
SYMBOL res 1424 432 R0
SYMATTR InstName R15
SYMATTR Value 1000
SYMBOL pnp 1632 512 M180
SYMATTR InstName Q5
SYMATTR Value 2N3906
SYMBOL npn 1632 16 R0
SYMATTR InstName Q4
SYMATTR Value 2N5769
SYMBOL res 1680 144 R0
SYMATTR InstName R16
SYMATTR Value 10
SYMBOL res 1680 272 R0
SYMATTR InstName R17
SYMATTR Value 10
SYMBOL voltage 1888 -48 R0
WINDOW 123 0 0 Left 0
WINDOW 39 0 0 Left 0
SYMATTR InstName V1
SYMATTR Value 28
TEXT -98 770 Left 2 !.tran 1
